<edges>
<edge id="e_2_1_2_2" from="(2,1)" to="(2,2)" type="d" />
<edge id="e_1_2_2_2" from="(1,2)" to="(2,2)" type="d" />
<edge id="e_2_2_2_3" from="(2,2)" to="(2,3)" type="d" />
<edge id="e_2_2_3_2" from="(2,2)" to="(3,2)" type="d" />
<edge id="e_2_2_2_1" from="(2,2)" to="(2,1)" type="d" />
<edge id="e_2_2_1_2" from="(2,2)" to="(1,2)" type="d" />
<edge id="e_3_2_2_2" from="(3,2)" to="(2,2)" type="d" />
<edge id="e_2_3_2_2" from="(2,3)" to="(2,2)" type="d" />
</edges>