<routes><vType accel="2" decel="4.5" id="Car" length="5.0" maxSpeed="100.0" sigma="0.5" /><route edges="e_2_1_2_2 e_2_2_2_3" id="route_sn_2" /><route edges="e_2_3_2_2 e_2_2_2_1" id="route_ns_2" /><route edges="e_1_2_2_2 e_2_2_3_2" id="route_we_2" /><route edges="e_3_2_2_2 e_2_2_1_2" id="route_ew_2" /><route edges="e_1_2_2_2 e_2_2_2_3" id="route_we_turnleft_2"/><flow begin="0" depart="1" end="3600" id="flow_ns_2" probability="0.2" route="route_ns_2" type="Car" /><flow begin="0" depart="1" end="3600" id="flow_sn_2" probability="0.2" route="route_sn_2" type="Car" /><flow begin="0" depart="1" end="3600" id="flow_ew_2" probability="0.2" route="route_ew_2" type="Car" /><flow begin="0" depart="1" end="3600" id="flow_we_2" probability="0.45" route="route_we_2" type="Car" /><flow begin="0" depart="1" end="3600" id="flow_we_turnleft_2" probability="0.05" route="route_we_turnleft_2" type="Car" /></routes>
