<routes><vType accel="2.6" color=".8,.2,.2" decel="4.5" guiShape="passenger/sedan" id="passenger1" length="5.0" maxSpeed="70" minGap="1.5" sigma="0.5" vClass="passenger" /><route edges="west_in north_out" id="west_in_north_out" /><route edges="west_in east_out" id="west_in_east_out" /><route edges="west_in south_out" id="west_in_south_out" /><route edges="north_in west_out" id="north_in_west_out" /><route edges="north_in east_out" id="north_in_east_out" /><route edges="north_in south_out" id="north_in_south_out" /><route edges="east_in west_out" id="east_in_west_out" /><route edges="east_in north_out" id="east_in_north_out" /><route edges="east_in south_out" id="east_in_south_out" /><route edges="south_in west_out" id="south_in_west_out" /><route edges="south_in north_out" id="south_in_north_out" /><route edges="south_in east_out" id="south_in_east_out" /><flow begin="0" depart="1" departLane="best" end="3600" id="flow_west_in_north_out" probability="0.0002777777777777778" route="west_in_north_out" type="passenger1" /><flow begin="0" depart="1" departLane="best" end="3600" id="flow_west_in_east_out" probability="0.0002777777777777778" route="west_in_east_out" type="passenger1" /><flow begin="0" depart="1" departLane="best" end="3600" id="flow_west_in_south_out" probability="0.0011111111111111111" route="west_in_south_out" type="passenger1" /><flow begin="0" depart="1" departLane="best" end="3600" id="flow_north_in_west_out" probability="0.000001" route="north_in_west_out" type="passenger1" /><flow begin="0" depart="1" departLane="best" end="3600" id="flow_north_in_east_out" probability="0.0011111111111111111" route="north_in_east_out" type="passenger1" /><flow begin="0" depart="1" departLane="best" end="3600" id="flow_north_in_south_out" probability="0.006111111111111111" route="north_in_south_out" type="passenger1" /><flow begin="0" depart="1" departLane="best" end="3600" id="flow_east_in_west_out" probability="0.0022222222222222222" route="east_in_west_out" type="passenger1" /><flow begin="0" depart="1" departLane="best" end="3600" id="flow_east_in_north_out" probability="0.0011111111111111111" route="east_in_north_out" type="passenger1" /><flow begin="0" depart="1" departLane="best" end="3600" id="flow_east_in_south_out" probability="0.0013888888888888887" route="east_in_south_out" type="passenger1" /><flow begin="0" depart="1" departLane="best" end="3600" id="flow_south_in_west_out" probability="0.0016666666666666668" route="south_in_west_out" type="passenger1" /><flow begin="0" depart="1" departLane="best" end="3600" id="flow_south_in_north_out" probability="0.0044444444444444444" route="south_in_north_out" type="passenger1" /><flow begin="0" depart="1" departLane="best" end="3600" id="flow_south_in_east_out" probability="0.0008333333333333333" route="south_in_east_out" type="passenger1" /></routes>
