<?xml version="1.0" encoding="UTF-8"?>

<!-- generated on Sat 15 Dec 2018 07:01:45 PM EST by Netedit Version 0.32.0
<?xml version="1.0" encoding="UTF-8"?>

<configuration xmlns:xsi="http://www.w3.org/2001/XMLSchema-instance" xsi:noNamespaceSchemaLocation="http://sumo.dlr.de/xsd/netconvertConfiguration.xsd">

    <input>
        <sumo-net-file value="/home/rusheng/RLTL/map/LuxembougDetailed-DUE-12408/traffic.net.xml"/>
    </input>

    <output>
        <output-file value="/home/rusheng/RLTL/map/LuxembougDetailed-DUE-12408/traffic.net.xml"/>
    </output>

    <processing>
        <no-turnarounds value="true"/>
        <offset.disable-normalization value="true"/>
        <lefthand value="false"/>
        <junctions.corner-detail value="0"/>
        <rectangular-lane-cut value="false"/>
        <walkingareas value="false"/>
    </processing>

</configuration>
-->

<net version="0.27" xmlns:xsi="http://www.w3.org/2001/XMLSchema-instance" xsi:noNamespaceSchemaLocation="http://sumo.dlr.de/xsd/net_file.xsd">

    <location netOffset="762.00,500.00" convBoundary="0.00,0.00,1462.00,1000.00" origBoundary="-762.00,-500.00,700.00,500.00" projParameter="!"/>

    <edge id=":0_0" function="internal">
        <lane id=":0_0_0" index="0" speed="13.89" length="5.00" shape="753.75,511.35 753.56,509.99 752.98,509.02 752.01,508.44 750.65,508.25"/>
    </edge>
    <edge id=":0_1" function="internal">
        <lane id=":0_1_0" index="0" speed="13.89" length="22.70" shape="757.05,511.35 757.05,488.65"/>
    </edge>
    <edge id=":0_2" function="internal">
        <lane id=":0_2_0" index="0" speed="13.89" length="12.52" shape="760.35,511.35 761.16,505.66 763.60,501.60 765.35,500.55"/>
    </edge>
    <edge id=":0_16" function="internal">
        <lane id=":0_16_0" index="0" speed="13.89" length="8.44" shape="765.35,500.55 767.66,499.16 773.35,498.35"/>
    </edge>
    <edge id=":0_3" function="internal">
        <lane id=":0_3_0" index="0" speed="13.89" length="5.00" shape="773.35,508.25 771.99,508.44 771.02,509.02 770.44,509.99 770.25,511.35"/>
    </edge>
    <edge id=":0_4" function="internal">
        <lane id=":0_4_0" index="0" speed="13.89" length="22.70" shape="773.35,508.25 750.65,508.25"/>
        <lane id=":0_4_1" index="1" speed="13.89" length="22.70" shape="773.35,504.95 750.65,504.95"/>
        <lane id=":0_4_2" index="2" speed="13.89" length="22.70" shape="773.35,501.65 750.65,501.65"/>
    </edge>
    <edge id=":0_7" function="internal">
        <lane id=":0_7_0" index="0" speed="13.89" length="7.47" shape="773.35,501.65 767.66,500.84 766.18,499.95"/>
    </edge>
    <edge id=":0_17" function="internal">
        <lane id=":0_17_0" index="0" speed="13.89" length="13.50" shape="766.18,499.95 763.60,498.40 761.16,494.34 760.35,488.65"/>
    </edge>
    <edge id=":0_8" function="internal">
        <lane id=":0_8_0" index="0" speed="13.89" length="5.00" shape="770.25,488.65 770.44,490.01 771.02,490.98 771.99,491.56 773.35,491.75"/>
    </edge>
    <edge id=":0_9" function="internal">
        <lane id=":0_9_0" index="0" speed="13.89" length="22.70" shape="766.95,488.65 766.95,511.35"/>
    </edge>
    <edge id=":0_10" function="internal">
        <lane id=":0_10_0" index="0" speed="13.89" length="12.52" shape="763.65,488.65 762.84,494.34 760.40,498.40 758.65,499.45"/>
    </edge>
    <edge id=":0_18" function="internal">
        <lane id=":0_18_0" index="0" speed="13.89" length="8.44" shape="758.65,499.45 756.34,500.84 750.65,501.65"/>
    </edge>
    <edge id=":0_11" function="internal">
        <lane id=":0_11_0" index="0" speed="13.89" length="5.00" shape="750.65,491.75 752.01,491.56 752.98,490.98 753.56,490.01 753.75,488.65"/>
    </edge>
    <edge id=":0_12" function="internal">
        <lane id=":0_12_0" index="0" speed="13.89" length="22.70" shape="750.65,491.75 773.35,491.75"/>
        <lane id=":0_12_1" index="1" speed="13.89" length="22.70" shape="750.65,495.05 773.35,495.05"/>
        <lane id=":0_12_2" index="2" speed="13.89" length="22.70" shape="750.65,498.35 773.35,498.35"/>
    </edge>
    <edge id=":0_15" function="internal">
        <lane id=":0_15_0" index="0" speed="13.89" length="7.47" shape="750.65,498.35 756.34,499.16 757.82,500.05"/>
    </edge>
    <edge id=":0_19" function="internal">
        <lane id=":0_19_0" index="0" speed="13.89" length="13.50" shape="757.82,500.05 760.40,501.60 762.84,505.66 763.65,511.35"/>
    </edge>
    <edge id=":east_0" function="internal">
        <lane id=":east_0_0" index="0" speed="13.89" length="5.00" shape="987.05,511.35 986.86,509.99 986.27,509.02 985.31,508.44 983.95,508.25"/>
    </edge>
    <edge id=":east_1" function="internal">
        <lane id=":east_1_0" index="0" speed="13.89" length="10.32" shape="990.35,511.35 989.95,508.55 988.75,506.55 986.75,505.35 983.95,504.95"/>
    </edge>
    <edge id=":east_2" function="internal">
        <lane id=":east_2_0" index="0" speed="13.89" length="21.23" shape="990.35,511.35 990.96,504.22 992.78,499.12 995.81,496.07 1000.05,495.05"/>
    </edge>
    <edge id=":east_3" function="internal">
        <lane id=":east_3_0" index="0" speed="13.89" length="18.38" shape="990.35,511.35 990.96,505.66 992.78,501.60 995.81,499.16 1000.05,498.35"/>
    </edge>
    <edge id=":east_4" function="internal">
        <lane id=":east_4_0" index="0" speed="13.89" length="2.41" shape="990.35,511.35 991.17,510.11 992.00,509.70"/>
    </edge>
    <edge id=":east_15" function="internal">
        <lane id=":east_15_0" index="0" speed="13.89" length="2.41" shape="992.00,509.70 992.83,510.11 993.65,511.35"/>
    </edge>
    <edge id=":east_5" function="internal">
        <lane id=":east_5_0" index="0" speed="13.89" length="5.00" shape="1000.05,508.25 998.69,508.44 997.73,509.02 997.14,509.99 996.95,511.35"/>
    </edge>
    <edge id=":east_6" function="internal">
        <lane id=":east_6_0" index="0" speed="13.89" length="16.10" shape="1000.05,508.25 983.95,508.25"/>
        <lane id=":east_6_1" index="1" speed="13.89" length="16.10" shape="1000.05,504.95 983.95,504.95"/>
        <lane id=":east_6_2" index="2" speed="13.89" length="16.10" shape="1000.05,501.65 983.95,501.65"/>
    </edge>
    <edge id=":east_9" function="internal">
        <lane id=":east_9_0" index="0" speed="13.89" length="2.41" shape="1000.05,501.65 998.81,500.82 998.40,500.00"/>
    </edge>
    <edge id=":east_16" function="internal">
        <lane id=":east_16_0" index="0" speed="13.89" length="2.41" shape="998.40,500.00 998.81,499.18 1000.05,498.35"/>
    </edge>
    <edge id=":east_10" function="internal">
        <lane id=":east_10_0" index="0" speed="13.89" length="16.10" shape="983.95,491.75 1000.05,491.75"/>
        <lane id=":east_10_1" index="1" speed="13.89" length="16.10" shape="983.95,495.05 1000.05,495.05"/>
        <lane id=":east_10_2" index="2" speed="13.89" length="16.10" shape="983.95,498.35 1000.05,498.35"/>
    </edge>
    <edge id=":east_13" function="internal">
        <lane id=":east_13_0" index="0" speed="13.89" length="5.74" shape="983.95,498.35 988.19,499.16 989.30,500.05"/>
    </edge>
    <edge id=":east_14" function="internal">
        <lane id=":east_14_0" index="0" speed="13.89" length="2.41" shape="983.95,498.35 985.19,499.18 985.60,500.00"/>
    </edge>
    <edge id=":east_17" function="internal">
        <lane id=":east_17_0" index="0" speed="13.89" length="12.64" shape="989.30,500.05 991.23,501.60 993.04,505.66 993.65,511.35"/>
    </edge>
    <edge id=":east_18" function="internal">
        <lane id=":east_18_0" index="0" speed="13.89" length="2.41" shape="985.60,500.00 985.19,500.82 983.95,501.65"/>
    </edge>
    <edge id=":east-east_0" function="internal">
        <lane id=":east-east_0_0" index="0" speed="13.89" length="4.82" shape="1462.00,498.35 1463.24,499.18 1463.65,500.00 1463.24,500.82 1462.00,501.65"/>
    </edge>
    <edge id=":east-north_0" function="internal">
        <lane id=":east-north_0_0" index="0" speed="13.89" length="4.82" shape="993.65,1000.00 992.83,1001.24 992.00,1001.65 991.17,1001.24 990.35,1000.00"/>
    </edge>
    <edge id=":north_0" function="internal">
        <lane id=":north_0_0" index="0" speed="13.89" length="4.82" shape="763.65,1000.00 762.82,1001.24 762.00,1001.65 761.17,1001.24 760.35,1000.00"/>
    </edge>
    <edge id=":south_0" function="internal">
        <lane id=":south_0_0" index="0" speed="13.89" length="9.56" shape="753.75,352.83 753.75,343.27"/>
        <lane id=":south_0_1" index="1" speed="13.89" length="9.56" shape="757.05,352.83 757.05,343.27"/>
        <lane id=":south_0_2" index="2" speed="13.89" length="9.56" shape="760.35,352.83 760.35,343.27"/>
    </edge>
    <edge id=":south_3" function="internal">
        <lane id=":south_3_0" index="0" speed="13.89" length="3.08" shape="760.35,352.83 761.18,350.88 762.05,350.48"/>
    </edge>
    <edge id=":south_4" function="internal">
        <lane id=":south_4_0" index="0" speed="13.89" length="2.41" shape="760.35,352.83 761.18,351.59 762.00,351.18"/>
    </edge>
    <edge id=":south_15" function="internal">
        <lane id=":south_15_0" index="0" speed="13.89" length="11.70" shape="762.05,350.48 763.65,349.75 767.78,349.44 773.56,349.95"/>
    </edge>
    <edge id=":south_16" function="internal">
        <lane id=":south_16_0" index="0" speed="13.89" length="2.41" shape="762.00,351.18 762.83,351.59 763.65,352.83"/>
    </edge>
    <edge id=":south_5" function="internal">
        <lane id=":south_5_0" index="0" speed="13.89" length="5.62" shape="770.25,343.27 770.49,344.56 771.19,345.57 772.37,346.27 774.01,346.68"/>
    </edge>
    <edge id=":south_6" function="internal">
        <lane id=":south_6_0" index="0" speed="13.89" length="9.56" shape="770.25,343.27 770.25,352.83"/>
        <lane id=":south_6_1" index="1" speed="13.89" length="9.56" shape="766.95,343.27 766.95,352.83"/>
        <lane id=":south_6_2" index="2" speed="13.89" length="9.56" shape="763.65,343.27 763.65,352.83"/>
    </edge>
    <edge id=":south_9" function="internal">
        <lane id=":south_9_0" index="0" speed="13.89" length="2.41" shape="763.65,343.27 762.82,344.50 762.00,344.92"/>
    </edge>
    <edge id=":south_17" function="internal">
        <lane id=":south_17_0" index="0" speed="13.89" length="2.41" shape="762.00,344.92 761.17,344.50 760.35,343.27"/>
    </edge>
    <edge id=":south_10" function="internal">
        <lane id=":south_10_0" index="0" speed="13.89" length="5.62" shape="749.99,346.68 751.63,346.27 752.81,345.57 753.51,344.56 753.75,343.27"/>
    </edge>
    <edge id=":south_11" function="internal">
        <lane id=":south_11_0" index="0" speed="13.89" length="23.68" shape="749.99,346.68 756.53,345.90 762.00,345.64 767.47,345.90 774.01,346.68"/>
        <lane id=":south_11_1" index="1" speed="13.89" length="23.68" shape="750.44,349.95 756.84,349.17 762.00,348.91 767.16,349.17 773.56,349.95"/>
    </edge>
    <edge id=":south_13" function="internal">
        <lane id=":south_13_0" index="0" speed="13.89" length="18.10" shape="750.44,349.95 757.66,349.27 762.82,349.52 765.92,350.70 766.95,352.83"/>
    </edge>
    <edge id=":south_14" function="internal">
        <lane id=":south_14_0" index="0" speed="13.89" length="14.78" shape="750.44,349.95 756.22,349.44 760.35,349.75 762.82,350.88 763.65,352.83"/>
    </edge>
    <edge id=":south-south_0" function="internal">
        <lane id=":south-south_0_0" index="0" speed="13.89" length="4.82" shape="760.35,0.00 761.18,-1.24 762.00,-1.65 762.83,-1.24 763.65,0.00"/>
    </edge>
    <edge id=":west_0" function="internal">
        <lane id=":west_0_0" index="0" speed="13.89" length="5.00" shape="495.05,511.35 494.86,509.99 494.28,509.02 493.31,508.44 491.95,508.25"/>
    </edge>
    <edge id=":west_1" function="internal">
        <lane id=":west_1_0" index="0" speed="13.89" length="22.70" shape="495.05,511.35 495.05,488.65"/>
        <lane id=":west_1_1" index="1" speed="13.89" length="22.70" shape="498.35,511.35 498.35,488.65"/>
    </edge>
    <edge id=":west_3" function="internal">
        <lane id=":west_3_0" index="0" speed="13.89" length="8.40" shape="498.35,511.35 498.96,505.66 500.05,503.22"/>
    </edge>
    <edge id=":west_4" function="internal">
        <lane id=":west_4_0" index="0" speed="13.89" length="2.41" shape="498.35,511.35 499.18,510.11 500.00,509.70"/>
    </edge>
    <edge id=":west_22" function="internal">
        <lane id=":west_22_0" index="0" speed="13.89" length="9.98" shape="500.05,503.22 500.78,501.60 503.81,499.16 508.05,498.35"/>
    </edge>
    <edge id=":west_23" function="internal">
        <lane id=":west_23_0" index="0" speed="13.89" length="2.41" shape="500.00,509.70 500.82,510.11 501.65,511.35"/>
    </edge>
    <edge id=":west_5" function="internal">
        <lane id=":west_5_0" index="0" speed="13.89" length="5.00" shape="508.05,508.25 506.69,508.44 505.73,509.02 505.14,509.99 504.95,511.35"/>
    </edge>
    <edge id=":west_6" function="internal">
        <lane id=":west_6_0" index="0" speed="13.89" length="16.10" shape="508.05,508.25 491.95,508.25"/>
        <lane id=":west_6_1" index="1" speed="13.89" length="16.10" shape="508.05,504.95 491.95,504.95"/>
        <lane id=":west_6_2" index="2" speed="13.89" length="16.10" shape="508.05,501.65 491.95,501.65"/>
    </edge>
    <edge id=":west_9" function="internal">
        <lane id=":west_9_0" index="0" speed="13.89" length="5.74" shape="508.05,501.65 503.81,500.84 502.70,499.95"/>
    </edge>
    <edge id=":west_10" function="internal">
        <lane id=":west_10_0" index="0" speed="13.89" length="2.41" shape="508.05,501.65 506.81,500.82 506.40,500.00"/>
    </edge>
    <edge id=":west_24" function="internal">
        <lane id=":west_24_0" index="0" speed="13.89" length="12.64" shape="502.70,499.95 500.77,498.40 498.96,494.34 498.35,488.65"/>
    </edge>
    <edge id=":west_25" function="internal">
        <lane id=":west_25_0" index="0" speed="13.89" length="2.41" shape="506.40,500.00 506.81,499.18 508.05,498.35"/>
    </edge>
    <edge id=":west_11" function="internal">
        <lane id=":west_11_0" index="0" speed="13.89" length="5.00" shape="504.95,488.65 505.14,490.01 505.72,490.98 506.69,491.56 508.05,491.75"/>
    </edge>
    <edge id=":west_12" function="internal">
        <lane id=":west_12_0" index="0" speed="13.89" length="22.70" shape="504.95,488.65 504.95,511.35"/>
        <lane id=":west_12_1" index="1" speed="13.89" length="22.70" shape="501.65,488.65 501.65,511.35"/>
    </edge>
    <edge id=":west_14" function="internal">
        <lane id=":west_14_0" index="0" speed="13.89" length="8.40" shape="501.65,488.65 501.04,494.34 499.95,496.78"/>
    </edge>
    <edge id=":west_15" function="internal">
        <lane id=":west_15_0" index="0" speed="13.89" length="2.41" shape="501.65,488.65 500.82,489.89 500.00,490.30"/>
    </edge>
    <edge id=":west_26" function="internal">
        <lane id=":west_26_0" index="0" speed="13.89" length="9.98" shape="499.95,496.78 499.22,498.40 496.19,500.84 491.95,501.65"/>
    </edge>
    <edge id=":west_27" function="internal">
        <lane id=":west_27_0" index="0" speed="13.89" length="2.41" shape="500.00,490.30 499.18,489.89 498.35,488.65"/>
    </edge>
    <edge id=":west_16" function="internal">
        <lane id=":west_16_0" index="0" speed="13.89" length="5.00" shape="491.95,491.75 493.31,491.56 494.27,490.98 494.86,490.01 495.05,488.65"/>
    </edge>
    <edge id=":west_17" function="internal">
        <lane id=":west_17_0" index="0" speed="13.89" length="16.10" shape="491.95,491.75 508.05,491.75"/>
        <lane id=":west_17_1" index="1" speed="13.89" length="16.10" shape="491.95,495.05 508.05,495.05"/>
        <lane id=":west_17_2" index="2" speed="13.89" length="16.10" shape="491.95,498.35 508.05,498.35"/>
    </edge>
    <edge id=":west_20" function="internal">
        <lane id=":west_20_0" index="0" speed="13.89" length="5.74" shape="491.95,498.35 496.19,499.16 497.30,500.05"/>
    </edge>
    <edge id=":west_21" function="internal">
        <lane id=":west_21_0" index="0" speed="13.89" length="2.41" shape="491.95,498.35 493.19,499.18 493.60,500.00"/>
    </edge>
    <edge id=":west_28" function="internal">
        <lane id=":west_28_0" index="0" speed="13.89" length="12.64" shape="497.30,500.05 499.23,501.60 501.04,505.66 501.65,511.35"/>
    </edge>
    <edge id=":west_29" function="internal">
        <lane id=":west_29_0" index="0" speed="13.89" length="2.41" shape="493.60,500.00 493.19,500.82 491.95,501.65"/>
    </edge>
    <edge id=":west-north_0" function="internal">
        <lane id=":west-north_0_0" index="0" speed="13.89" length="4.82" shape="501.65,1000.00 500.82,1001.24 500.00,1001.65 499.18,1001.24 498.35,1000.00"/>
    </edge>
    <edge id=":west-south_0" function="internal">
        <lane id=":west-south_0_0" index="0" speed="13.89" length="4.82" shape="498.35,0.00 499.18,-1.24 500.00,-1.65 500.82,-1.24 501.65,0.00"/>
    </edge>
    <edge id=":west-west_0" function="internal">
        <lane id=":west-west_0_0" index="0" speed="13.89" length="4.82" shape="0.00,501.65 -1.24,500.82 -1.65,500.00 -1.24,499.18 0.00,498.35"/>
    </edge>

    <edge id="east_east_in" from="east-east" to="east" priority="9">
        <lane id="east_east_in_0" index="0" speed="13.89" length="461.95" shape="1462.00,508.25 1000.05,508.25"/>
        <lane id="east_east_in_1" index="1" speed="13.89" length="461.95" shape="1462.00,504.95 1000.05,504.95"/>
        <lane id="east_east_in_2" index="2" speed="13.89" length="461.95" shape="1462.00,501.65 1000.05,501.65"/>
    </edge>
    <edge id="east_east_out" from="east" to="east-east" priority="9">
        <lane id="east_east_out_0" index="0" speed="13.89" length="461.95" shape="1000.05,491.75 1462.00,491.75"/>
        <lane id="east_east_out_1" index="1" speed="13.89" length="461.95" shape="1000.05,495.05 1462.00,495.05"/>
        <lane id="east_east_out_2" index="2" speed="13.89" length="461.95" shape="1000.05,498.35 1462.00,498.35"/>
    </edge>
    <edge id="east_in" from="east" to="0" priority="9">
        <lane id="east_in_0" index="0" speed="13.89" length="210.60" shape="983.95,508.25 773.35,508.25"/>
        <lane id="east_in_1" index="1" speed="13.89" length="210.60" shape="983.95,504.95 773.35,504.95"/>
        <lane id="east_in_2" index="2" speed="13.89" length="210.60" shape="983.95,501.65 773.35,501.65"/>
    </edge>
    <edge id="east_north_in" from="east-north" to="east" priority="9">
        <lane id="east_north_in_0" index="0" speed="13.89" length="488.65" shape="987.05,1000.00 987.05,511.35"/>
        <lane id="east_north_in_1" index="1" speed="13.89" length="488.65" shape="990.35,1000.00 990.35,511.35"/>
    </edge>
    <edge id="east_north_out" from="east" to="east-north" priority="9">
        <lane id="east_north_out_0" index="0" speed="13.89" length="488.65" shape="996.95,511.35 996.95,1000.00"/>
        <lane id="east_north_out_1" index="1" speed="13.89" length="488.65" shape="993.65,511.35 993.65,1000.00"/>
    </edge>
    <edge id="east_out" from="0" to="east" priority="9">
        <lane id="east_out_0" index="0" speed="13.89" length="210.60" shape="773.35,491.75 983.95,491.75"/>
        <lane id="east_out_1" index="1" speed="13.89" length="210.60" shape="773.35,495.05 983.95,495.05"/>
        <lane id="east_out_2" index="2" speed="13.89" length="210.60" shape="773.35,498.35 983.95,498.35"/>
    </edge>
    <edge id="north_in" from="north" to="0" priority="9">
        <lane id="north_in_0" index="0" speed="13.89" length="488.65" shape="753.75,1000.00 753.75,511.35"/>
        <lane id="north_in_1" index="1" speed="13.89" length="488.65" shape="757.05,1000.00 757.05,511.35"/>
        <lane id="north_in_2" index="2" speed="13.89" length="488.65" shape="760.35,1000.00 760.35,511.35"/>
    </edge>
    <edge id="north_out" from="0" to="north" priority="9">
        <lane id="north_out_0" index="0" speed="13.89" length="488.65" shape="770.25,511.35 770.25,1000.00"/>
        <lane id="north_out_1" index="1" speed="13.89" length="488.65" shape="766.95,511.35 766.95,1000.00"/>
        <lane id="north_out_2" index="2" speed="13.89" length="488.65" shape="763.65,511.35 763.65,1000.00"/>
    </edge>
    <edge id="south_east_out" from="south" to="south-east" priority="9">
        <lane id="south_east_out_0" index="0" speed="13.89" length="493.44" shape="774.01,346.68 1262.69,415.10"/>
        <lane id="south_east_out_1" index="1" speed="13.89" length="493.44" shape="773.56,349.95 1262.23,418.37"/>
    </edge>
    <edge id="south_in" from="south" to="0" priority="9">
        <lane id="south_in_0" index="0" speed="13.89" length="135.82" shape="770.25,352.83 770.25,488.65"/>
        <lane id="south_in_1" index="1" speed="13.89" length="135.82" shape="766.95,352.83 766.95,488.65"/>
        <lane id="south_in_2" index="2" speed="13.89" length="135.82" shape="763.65,352.83 763.65,488.65"/>
    </edge>
    <edge id="south_out" from="0" to="south" priority="9">
        <lane id="south_out_0" index="0" speed="13.89" length="135.82" shape="753.75,488.65 753.75,352.83"/>
        <lane id="south_out_1" index="1" speed="13.89" length="135.82" shape="757.05,488.65 757.05,352.83"/>
        <lane id="south_out_2" index="2" speed="13.89" length="135.82" shape="760.35,488.65 760.35,352.83"/>
    </edge>
    <edge id="south_south_in" from="south-south" to="south" priority="9">
        <lane id="south_south_in_0" index="0" speed="13.89" length="343.27" shape="770.25,0.00 770.25,343.27"/>
        <lane id="south_south_in_1" index="1" speed="13.89" length="343.27" shape="766.95,0.00 766.95,343.27"/>
        <lane id="south_south_in_2" index="2" speed="13.89" length="343.27" shape="763.65,0.00 763.65,343.27"/>
    </edge>
    <edge id="south_south_out" from="south" to="south-south" priority="9">
        <lane id="south_south_out_0" index="0" speed="13.89" length="343.27" shape="753.75,343.27 753.75,0.00"/>
        <lane id="south_south_out_1" index="1" speed="13.89" length="343.27" shape="757.05,343.27 757.05,0.00"/>
        <lane id="south_south_out_2" index="2" speed="13.89" length="343.27" shape="760.35,343.27 760.35,0.00"/>
    </edge>
    <edge id="south_west_in" from="south-west" to="south" priority="9">
        <lane id="south_west_in_0" index="0" speed="13.89" length="493.44" shape="261.31,415.10 749.99,346.68"/>
        <lane id="south_west_in_1" index="1" speed="13.89" length="493.44" shape="261.77,418.37 750.44,349.95"/>
    </edge>
    <edge id="west_in" from="west" to="0" priority="9">
        <lane id="west_in_0" index="0" speed="13.89" length="242.60" shape="508.05,491.75 750.65,491.75"/>
        <lane id="west_in_1" index="1" speed="13.89" length="242.60" shape="508.05,495.05 750.65,495.05"/>
        <lane id="west_in_2" index="2" speed="13.89" length="242.60" shape="508.05,498.35 750.65,498.35"/>
    </edge>
    <edge id="west_north_in" from="west-north" to="west" priority="9">
        <lane id="west_north_in_0" index="0" speed="13.89" length="488.65" shape="495.05,1000.00 495.05,511.35"/>
        <lane id="west_north_in_1" index="1" speed="13.89" length="488.65" shape="498.35,1000.00 498.35,511.35"/>
    </edge>
    <edge id="west_north_out" from="west" to="west-north" priority="9">
        <lane id="west_north_out_0" index="0" speed="13.89" length="488.65" shape="504.95,511.35 504.95,1000.00"/>
        <lane id="west_north_out_1" index="1" speed="13.89" length="488.65" shape="501.65,511.35 501.65,1000.00"/>
    </edge>
    <edge id="west_out" from="0" to="west" priority="9">
        <lane id="west_out_0" index="0" speed="13.89" length="242.60" shape="750.65,508.25 508.05,508.25"/>
        <lane id="west_out_1" index="1" speed="13.89" length="242.60" shape="750.65,504.95 508.05,504.95"/>
        <lane id="west_out_2" index="2" speed="13.89" length="242.60" shape="750.65,501.65 508.05,501.65"/>
    </edge>
    <edge id="west_south_in" from="west-south" to="west" priority="9">
        <lane id="west_south_in_0" index="0" speed="13.89" length="488.65" shape="504.95,0.00 504.95,488.65"/>
        <lane id="west_south_in_1" index="1" speed="13.89" length="488.65" shape="501.65,0.00 501.65,488.65"/>
    </edge>
    <edge id="west_south_out" from="west" to="west-south" priority="9">
        <lane id="west_south_out_0" index="0" speed="13.89" length="488.65" shape="495.05,488.65 495.05,0.00"/>
        <lane id="west_south_out_1" index="1" speed="13.89" length="488.65" shape="498.35,488.65 498.35,0.00"/>
    </edge>
    <edge id="west_west_in" from="west-west" to="west" priority="9">
        <lane id="west_west_in_0" index="0" speed="13.89" length="491.95" shape="0.00,491.75 491.95,491.75"/>
        <lane id="west_west_in_1" index="1" speed="13.89" length="491.95" shape="0.00,495.05 491.95,495.05"/>
        <lane id="west_west_in_2" index="2" speed="13.89" length="491.95" shape="0.00,498.35 491.95,498.35"/>
    </edge>
    <edge id="west_west_out" from="west" to="west-west" priority="9">
        <lane id="west_west_out_0" index="0" speed="13.89" length="491.95" shape="491.95,508.25 0.00,508.25"/>
        <lane id="west_west_out_1" index="1" speed="13.89" length="491.95" shape="491.95,504.95 0.00,504.95"/>
        <lane id="west_west_out_2" index="2" speed="13.89" length="491.95" shape="491.95,501.65 0.00,501.65"/>
    </edge>

    <tlLogic id="0" type="static" programID="0" offset="0">
        <phase duration="33" state="GGgrrrrrGGgrrrrr"/>
        <phase duration="3" state="yygrrrrryygrrrrr"/>
        <phase duration="6" state="rrGrrrrrrrGrrrrr"/>
        <phase duration="3" state="rryrrrrrrryrrrrr"/>
        <phase duration="33" state="rrrGGGGgrrrGGGGg"/>
        <phase duration="3" state="rrryyyygrrryyyyg"/>
        <phase duration="6" state="rrrrrrrGrrrrrrrG"/>
        <phase duration="3" state="rrrrrrryrrrrrrry"/>
    </tlLogic>
    <tlLogic id="east" type="static" programID="0" offset="0">
        <phase duration="38" state="rrrrrGGGGgGGGgg"/>
        <phase duration="3" state="rrrrryyyygyyygg"/>
        <phase duration="6" state="rrrrrrrrrGrrrGG"/>
        <phase duration="3" state="rrrrrrrrryrrryy"/>
        <phase duration="37" state="GGGGgGrrrrrrrrr"/>
        <phase duration="3" state="yyyyyyrrrrrrrrr"/>
    </tlLogic>
    <tlLogic id="south" type="static" programID="0" offset="0">
        <phase duration="38" state="GGGggGGGGgrrrrr"/>
        <phase duration="3" state="yyyggyyyygrrrrr"/>
        <phase duration="6" state="rrrGGrrrrGrrrrr"/>
        <phase duration="3" state="rrryyrrrryrrrrr"/>
        <phase duration="37" state="rrrrrrrrrrGGGGG"/>
        <phase duration="3" state="rrrrrrrrrryyyyy"/>
    </tlLogic>
    <tlLogic id="west" type="static" programID="0" offset="0">
        <phase duration="33" state="rrrrrGGGGggrrrrrGGGGgg"/>
        <phase duration="3" state="rrrrryyyyggrrrrryyyygg"/>
        <phase duration="6" state="rrrrrrrrrGGrrrrrrrrrGG"/>
        <phase duration="3" state="rrrrrrrrryyrrrrrrrrryy"/>
        <phase duration="33" state="GGGggrrrrrrGGGggrrrrrr"/>
        <phase duration="3" state="yyyggrrrrrryyyggrrrrrr"/>
        <phase duration="6" state="rrrGGrrrrrrrrrGGrrrrrr"/>
        <phase duration="3" state="rrryyrrrrrrrrryyrrrrrr"/>
    </tlLogic>

    <junction id="0" type="traffic_light" x="762.00" y="500.00" incLanes="north_in_0 north_in_1 north_in_2 east_in_0 east_in_1 east_in_2 south_in_0 south_in_1 south_in_2 west_in_0 west_in_1 west_in_2" intLanes=":0_0_0 :0_1_0 :0_16_0 :0_3_0 :0_4_0 :0_4_1 :0_4_2 :0_17_0 :0_8_0 :0_9_0 :0_18_0 :0_11_0 :0_12_0 :0_12_1 :0_12_2 :0_19_0" shape="752.15,511.35 771.85,511.35 773.35,509.85 773.35,490.15 771.85,488.65 752.15,488.65 750.65,490.15 750.65,509.85">
        <request index="0" response="0000000000000000" foes="0000010001110000" cont="0"/>
        <request index="1" response="0000000000000000" foes="1111010001110000" cont="0"/>
        <request index="2" response="0000001100000000" foes="1111001111110000" cont="1"/>
        <request index="3" response="0000000000000000" foes="0000000000000000" cont="0"/>
        <request index="4" response="0000011000000111" foes="1000011000000111" cont="0"/>
        <request index="5" response="0000011000000111" foes="1000011000000111" cont="0"/>
        <request index="6" response="0000011000000111" foes="1000011000000111" cont="0"/>
        <request index="7" response="0111011000000100" foes="0111011000000100" cont="1"/>
        <request index="8" response="0000000000000000" foes="0111000000000100" cont="0"/>
        <request index="9" response="0000000000000000" foes="0111000011110100" cont="0"/>
        <request index="10" response="0000000000000011" foes="1111000011110011" cont="1"/>
        <request index="11" response="0000000000000000" foes="0000000000000000" cont="0"/>
        <request index="12" response="0000011100000110" foes="0000011110000110" cont="0"/>
        <request index="13" response="0000011100000110" foes="0000011110000110" cont="0"/>
        <request index="14" response="0000011100000110" foes="0000011110000110" cont="0"/>
        <request index="15" response="0000010001110110" foes="0000010001110110" cont="1"/>
    </junction>
    <junction id="east" type="traffic_light" x="992.00" y="500.00" incLanes="east_north_in_0 east_north_in_1 east_east_in_0 east_east_in_1 east_east_in_2 east_out_0 east_out_1 east_out_2" intLanes=":east_0_0 :east_1_0 :east_2_0 :east_3_0 :east_15_0 :east_5_0 :east_6_0 :east_6_1 :east_6_2 :east_16_0 :east_10_0 :east_10_1 :east_10_2 :east_17_0 :east_18_0" shape="985.45,511.35 998.55,511.35 1000.05,509.85 1000.05,490.15 983.95,490.15 983.95,509.85">
        <request index="0" response="000000111000000" foes="100000111000000" cont="0"/>
        <request index="1" response="000000111000000" foes="100000111000000" cont="0"/>
        <request index="2" response="011110111000000" foes="011111111000000" cont="0"/>
        <request index="3" response="011110111000000" foes="011111111000000" cont="0"/>
        <request index="4" response="010000000100000" foes="010000000100000" cont="1"/>