<routes><vType accel="2.6" color=".8,.2,.2" decel="4.5" guiShape="passenger/sedan" id="passenger1" length="5.0" maxSpeed="70" minGap="1.5" sigma="0.5" vClass="passenger" /><vType accel="3.0" color=".8,.8,.8" decel="4.5" guiShape="passenger/hatchback" id="passenger2a" length="4.5" maxSpeed="50" minGap="1.5" sigma="0.5" vClass="passenger" /><vType accel="2.8" color=".2,.2,.8" decel="4.5" guiShape="passenger/hatchback" id="passenger2b" length="4.5" maxSpeed="50" minGap="1.0" sigma="0.5" vClass="passenger" /><vType accel="2.7" color=".3,.3,.3" decel="4.5" guiShape="passenger/wagon" id="passenger3" length="6.0" maxSpeed="70" minGap="1.5" sigma="0.5" vClass="passenger" /><vType accel="2.4" color=".9,.9,.9" decel="4.5" guiShape="passenger/van" id="passenger4" length="5.5" maxSpeed="30" minGap="1.5" sigma="0.5" vClass="passenger" /><vType accel="2.3" color=".8,.8,.0" decel="4.5" guiShape="delivery" id="passenger5" length="7.0" maxSpeed="30" minGap="2.5" sigma="0.5" vClass="passenger" /><vType accel="2.6" decel="4.5" guiShape="bus" id="bus" length="12.0" maxSpeed="30" minGap="3" sigma="0.5" vClass="bus" /><route edges="west_west_in west_in south_out" id="west_west_in_west_in_south_out_" /><route edges="east_east_in east_in west_out" id="east_east_in_east_in_west_out_" /><route edges="north_in south_out" id="north_in_south_out_" /><route edges="east_east_in east_in south_out" id="east_east_in_east_in_south_out_" /><route edges="south_south_in south_in north_out" id="south_south_in_south_in_north_out_" /><route edges="east_north_in east_in west_out" id="east_north_in_east_in_west_out_" /><route edges="east_east_in east_in north_out" id="east_east_in_east_in_north_out_" /><route edges="south_south_in south_in west_out" id="south_south_in_south_in_west_out_" /><route edges="north_in east_out" id="north_in_east_out_" /><route edges="east_north_in east_in north_out" id="east_north_in_east_in_north_out_" /><route edges="east_north_in east_in south_out" id="east_north_in_east_in_south_out_" /><route edges="south_south_in south_in east_out" id="south_south_in_south_in_east_out_" /><route edges="north_out" id="north_out_" /><route edges="west_north_in west_in east_out" id="west_north_in_west_in_east_out_" /><route edges="west_south_in west_in east_out" id="west_south_in_west_in_east_out_" /><route edges="west_north_in west_in south_out" id="west_north_in_west_in_south_out_" /><route edges="west_west_in west_in east_out" id="west_west_in_west_in_east_out_" /><route edges="north_in west_out" id="north_in_west_out_" /><route edges="west_west_in west_in north_out" id="west_west_in_west_in_north_out_" /><route edges="west_south_in west_in south_out" id="west_south_in_west_in_south_out_" /><route edges="west_south_in west_in north_out" id="west_south_in_west_in_north_out_" /><route edges="east_in north_out" id="east_in_north_out_" /><route edges="west_in south_out" id="west_in_south_out_" /><route edges="south_west_in south_in north_out" id="south_west_in_south_in_north_out_" /><route edges="south_west_in south_in east_out" id="south_west_in_south_in_east_out_" /><route edges="south_in east_out" id="south_in_east_out_" /><route edges="south_west_in south_in west_out" id="south_west_in_south_in_west_out_" /><route edges="west_north_in west_in north_out" id="west_north_in_west_in_north_out_" /><route edges="west_out" id="west_out_" /><route edges="south_out" id="south_out_" /><route edges="west_in north_out" id="west_in_north_out_" /><route edges="south_in north_out" id="south_in_north_out_" /><route edges="east_in west_out" id="east_in_west_out_" /><route edges="east_out" id="east_out_" /><route edges="east_in south_out" id="east_in_south_out_" /><route edges="west_in east_out" id="west_in_east_out_" /><route edges="south_in west_out" id="south_in_west_out_" /><flow begin="0" depart="1" end="3600" id="flow_west_west_in_west_in_south_out_bus" probability="0.0005555555555555556" route="west_west_in_west_in_south_out_" type="bus" /><flow begin="0" depart="1" end="3600" id="flow_east_east_in_east_in_west_out_passenger1" probability="0.0005555555555555556" route="east_east_in_east_in_west_out_" type="passenger1" /><flow begin="0" depart="1" end="3600" id="flow_north_in_south_out_passenger2b" probability="0.0008333333333333334" route="north_in_south_out_" type="passenger2b" /><flow begin="0" depart="1" end="3600" id="flow_east_east_in_east_in_south_out_passenger2b" probability="0.0002777777777777778" route="east_east_in_east_in_south_out_" type="passenger2b" /><flow begin="0" depart="1" end="3600" id="flow_south_south_in_south_in_north_out_passenger1" probability="0.0025" route="south_south_in_south_in_north_out_" type="passenger1" /><flow begin="0" depart="1" end="3600" id="flow_south_south_in_south_in_north_out_bus" probability="0.0005555555555555556" route="south_south_in_south_in_north_out_" type="bus" /><flow begin="0" depart="1" end="3600" id="flow_south_south_in_south_in_west_out_passenger2b" probability="0.0002777777777777778" route="south_south_in_south_in_west_out_" type="passenger2b" /><flow begin="0" depart="1" end="3600" id="flow_north_in_east_out_passenger1" probability="0.0005555555555555556" route="north_in_east_out_" type="passenger1" /><flow begin="0" depart="1" end="3600" id="flow_north_in_south_out_bus" probability="0.0005555555555555556" route="north_in_south_out_" type="bus" /><flow begin="0" depart="1" end="3600" id="flow_north_in_south_out_passenger5" probability="0.0002777777777777778" route="north_in_south_out_" type="passenger5" /><flow begin="0" depart="1" end="3600" id="flow_south_south_in_south_in_west_out_passenger2a" probability="0.0002777777777777778" route="south_south_in_south_in_west_out_" type="passenger2a" /><flow begin="0" depart="1" end="3600" id="flow_north_in_south_out_passenger1" probability="0.002777777777777778" route="north_in_south_out_" type="passenger1" /><flow begin="0" depart="1" end="3600" id="flow_east_east_in_east_in_south_out_passenger1" probability="0.0002777777777777778" route="east_east_in_east_in_south_out_" type="passenger1" /><flow begin="0" depart="1" end="3600" id="flow_south_south_in_south_in_north_out_passenger4" probability="0.0005555555555555556" route="south_south_in_south_in_north_out_" type="passenger4" /><flow begin="0" depart="1" end="3600" id="flow_north_in_south_out_passenger2a" probability="0.0008333333333333334" route="north_in_south_out_" type="passenger2a" /><flow begin="0" depart="1" end="3600" id="flow_east_north_in_east_in_north_out_passenger2b" probability="0.0002777777777777778" route="east_north_in_east_in_north_out_" type="passenger2b" /><flow begin="0" depart="1" end="3600" id="flow_south_south_in_south_in_north_out_passenger3" probability="0.0002777777777777778" route="south_south_in_south_in_north_out_" type="passenger3" /><flow begin="0" depart="1" end="3600" id="flow_east_east_in_east_in_north_out_passenger2a" probability="0.0002777777777777778" route="east_east_in_east_in_north_out_" type="passenger2a" /><flow begin="0" depart="1" end="3600" id="flow_south_south_in_south_in_west_out_passenger1" probability="0.0008333333333333334" route="south_south_in_south_in_west_out_" type="passenger1" /><flow begin="0" depart="1" end="3600" id="flow_south_south_in_south_in_north_out_passenger2b" probability="0.0005555555555555556" route="south_south_in_south_in_north_out_" type="passenger2b" /><flow begin="0" depart="1" end="3600" id="flow_east_north_in_east_in_south_out_passenger2b" probability="0.0002777777777777778" route="east_north_in_east_in_south_out_" type="passenger2b" /><flow begin="0" depart="1" end="3600" id="flow_east_east_in_east_in_west_out_bus" probability="0.0005555555555555556" route="east_east_in_east_in_west_out_" type="bus" /><flow begin="0" depart="1" end="3600" id="flow_east_north_in_east_in_west_out_passenger2b" probability="0.0002777777777777778" route="east_north_in_east_in_west_out_" type="passenger2b" /><flow begin="0" depart="1" end="3600" id="flow_south_south_in_south_in_east_out_passenger2b" probability="0.0005555555555555556" route="south_south_in_south_in_east_out_" type="passenger2b" /><flow begin="0" depart="1" end="3600" id="flow_north_in_east_out_passenger2a" probability="0.0002777777777777778" route="north_in_east_out_" type="passenger2a" /><flow begin="0" depart="1" end="3600" id="flow_south_south_in_south_in_west_out_passenger4" probability="0.0002777777777777778" route="south_south_in_south_in_west_out_" type="passenger4" /><flow begin="0" depart="1" end="3600" id="flow_west_west_in_west_in_north_out_passenger2b" probability="0.0002777777777777778" route="west_west_in_west_in_north_out_" type="passenger2b" /><flow begin="0" depart="1" end="3600" id="flow_east_north_in_east_in_west_out_passenger1" probability="0.0008333333333333334" route="east_north_in_east_in_west_out_" type="passenger1" /><flow begin="0" depart="1" end="3600" id="flow_north_in_east_out_passenger3" probability="0.0002777777777777778" route="north_in_east_out_" type="passenger3" /><flow begin="0" depart="1" end="3600" id="flow_east_north_in_east_in_north_out_passenger2a" probability="0.0002777777777777778" route="east_north_in_east_in_north_out_" type="passenger2a" /><flow begin="0" depart="1" end="3600" id="flow_east_north_in_east_in_south_out_passenger3" probability="0.0005555555555555556" route="east_north_in_east_in_south_out_" type="passenger3" /><flow begin="0" depart="1" end="3600" id="flow_south_south_in_south_in_east_out_passenger2a" probability="0.0002777777777777778" route="south_south_in_south_in_east_out_" type="passenger2a" /><flow begin="0" depart="1" end="3600" id="flow_north_in_south_out_passenger3" probability="0.0008333333333333334" route="north_in_south_out_" type="passenger3" /><flow begin="0" depart="1" end="3600" id="flow_east_east_in_east_in_north_out_passenger3" probability="0.0002777777777777778" route="east_east_in_east_in_north_out_" type="passenger3" /><flow begin="0" depart="1" end="3600" id="flow_west_north_in_west_in_south_out_passenger1" probability="0.0002777777777777778" route="west_north_in_west_in_south_out_" type="passenger1" /><flow begin="0" depart="1" end="3600" id="flow_west_south_in_west_in_east_out_passenger3" probability="0.0002777777777777778" route="west_south_in_west_in_east_out_" type="passenger3" /><flow begin="0" depart="1" end="3600" id="flow_west_south_in_west_in_south_out_passenger3" probability="0.0002777777777777778" route="west_south_in_west_in_south_out_" type="passenger3" /></routes>